MATDSS_ver0.95/DSS_Files/Other DSS Files/Old Files/IEEE13Nodeckt_Curr_Elem.Txt

CIRCUIT ELEMENT CURRENTS

(Currents into element from indicated bus)

Power Delivery Elements

  Bus     Phase    Magnitude, A     Angle      (Real)   +j  (Imag)

ELEMENT = "Vsource.SOURCE"
SOURCEBUS     1      1.7108E-005 /_  -59.8 =  8.5974E-006 +j -1.4791E-005
SOURCEBUS     2      2.4839E-005 /_ -170.3 =  -2.4482E-005 +j -4.1947E-006
SOURCEBUS     3      2.4754E-005 /_   50.1 =  1.5885E-005 +j 1.8986E-005
------------
SOURCEBUS     0      1.7108E-005 /_  120.2 =  -8.5974E-006 +j 1.4791E-005
SOURCEBUS     0      2.4839E-005 /_    9.7 =  2.4482E-005 +j 4.1947E-006
SOURCEBUS     0      2.4754E-005 /_ -129.9 =  -1.5885E-005 +j -1.8986E-005

ELEMENT = "Transformer.SUB"
SOURCEBUS     1      1.7108E-005 /_  120.2 =  -8.5974E-006 +j 1.4791E-005
SOURCEBUS     2      2.4839E-005 /_    9.7 =  2.4482E-005 +j 4.1947E-006
SOURCEBUS     3      2.4754E-005 /_ -129.9 =  -1.5885E-005 +j -1.8986E-005
SOURCEBUS     0                0 /_    0.0 =          0 +j         0
------------
650           1        0.0010518 /_  -90.0 =  5.411E-007 +j -0.0010518
650           2        0.0010518 /_  150.1 =  -0.00091196 +j 0.00052395
650           3        0.0014553 /_   29.9 =   0.001262 +j 0.0007248
650           0       0.00040211 /_ -150.7 =  -0.00035055 +j -0.000197

ELEMENT = "Transformer.REG1"
650           1        0.0010518 /_   90.0 =  -5.4017E-007 +j 0.0010518
650           0        0.0013991 /_  -90.0 =  5.4017E-007 +j -0.0013991
------------
RG60          1        0.0017465 /_  -90.0 =  5.4017E-007 +j -0.0017465
RG60          0        0.0013991 /_   90.0 =  -5.4017E-007 +j 0.0013991

ELEMENT = "Transformer.REG2"
650           2        0.0010518 /_  -29.9 =  0.00091196 +j -0.00052395
650           0        0.0013991 /_  150.1 =  -0.0012128 +j 0.00069764
------------
RG60          2        0.0017465 /_  150.1 =  -0.0015136 +j 0.00087133
RG60          0        0.0013991 /_  -29.9 =  0.0012128 +j -0.00069764

ELEMENT = "Transformer.REG3"
650           3        0.0014553 /_ -150.1 =  -0.001262 +j -0.0007248
650           0        0.0018027 /_   29.9 =  0.0015628 +j 0.00089849
------------
RG60          3          0.00215 /_   29.9 =  0.0018636 +j 0.0010722
RG60          0        0.0018027 /_ -150.1 =  -0.0015628 +j -0.00089849

ELEMENT = "Transformer.XFM1"
633           1      6.9405E-005 /_  -90.0 =  6.6671E-009 +j -6.9405E-005
633           2      6.9404E-005 /_  150.0 =  -6.0108E-005 +j 3.4698E-005
633           3      6.9404E-005 /_   30.0 =  6.0103E-005 +j 3.4706E-005
633           0      1.8673E-009 /_  153.5 =  -1.6712E-009 +j 8.331E-010
------------
634           1      7.0135E-008 /_  145.5 =  -5.7797E-008 +j 3.973E-008
634           2      5.4185E-008 /_   23.1 =  4.9829E-008 +j 2.1286E-008
634           3      5.4184E-008 /_  -96.9 =  -6.4792E-009 +j -5.3795E-008
634           0      1.6175E-008 /_  -26.5 =  1.4476E-008 +j -7.2177E-009

ELEMENT = "Capacitor.CAP1"
675           1            83.28 /_   90.0 =  5.4611E-006 +j     83.28
675           2            83.28 /_  -30.0 =     72.123 +j    -41.64
675           3            83.28 /_ -150.0 =    -72.123 +j    -41.64
------------
675           0            83.28 /_  -90.0 =  -5.4611E-006 +j    -83.28
675           0            83.28 /_  150.0 =    -72.123 +j     41.64
675           0            83.28 /_   30.0 =     72.123 +j     41.64

ELEMENT = "Capacitor.CAP2"
611           3           41.702 /_ -150.0 =    -36.115 +j   -20.851
------------
611           0           41.702 /_   30.0 =     36.115 +j    20.851

ELEMENT = "Line.650632"
RG60          1        0.0022287 /_   90.0 =  -5.4099E-007 +j 0.0022287
RG60          2        0.0022287 /_  -29.9 =  0.0019313 +j -0.0011124
RG60          3        0.0026323 /_ -150.1 =  -0.0022813 +j -0.0013133
------------
632           1        0.0010625 /_  -90.0 =  5.4102E-007 +j -0.0010625
632           2        0.0010625 /_  150.1 =  -0.00092128 +j 0.00052933
632           3        0.0014661 /_   29.9 =  0.0012713 +j 0.00073018

ELEMENT = "Line.632670"
632           1         0.001506 /_   90.0 =  -5.4765E-007 +j  0.001506
632           2        0.0011024 /_  -29.9 =  0.00095585 +j -0.00054927
632           3         0.001506 /_ -150.1 =  -0.0013058 +j -0.00075014
------------
670           1         0.001117 /_  -90.0 =  5.4768E-007 +j -0.001117
670           2       0.00071349 /_  150.2 =  -0.00061902 +j 0.0003548
670           3         0.001117 /_   29.8 =  0.00096901 +j 0.00055567

ELEMENT = "Line.670671"
670           1        0.0014984 /_   90.0 =  -5.4836E-007 +j 0.0014984
670           2        0.0010948 /_  -29.9 =  0.00094928 +j -0.00054547
670           3        0.0014984 /_ -150.1 =  -0.0012993 +j -0.00074635
------------
671           1       0.00072107 /_  -90.0 =  5.4843E-007 +j -0.00072107
671           2       0.00031755 /_  150.4 =  -0.00027612 +j 0.00015683
671           3       0.00072108 /_   29.7 =  0.00062611 +j 0.0003577

ELEMENT = "Line.671680"
671           1       0.00039244 /_   90.0 =  3.2742E-011 +j 0.00039244
671           2       0.00039244 /_  -30.0 =  0.00033986 +j -0.00019622
671           3       0.00039244 /_ -150.0 =  -0.00033986 +j -0.00019622
------------
680           1       0.00019067 /_   90.0 =  1.9554E-011 +j 0.00019067
680           2       0.00019067 /_  -30.0 =  0.00016513 +j -9.5336E-005
680           3       0.00019067 /_ -150.0 =  -0.00016513 +j -9.5336E-005

ELEMENT = "Line.632633"
632           1       0.00017726 /_   90.0 =  6.6771E-009 +j 0.00017726
632           2       0.00017726 /_  -30.0 =  0.00015351 +j -8.8634E-005
632           3       0.00017726 /_ -150.0 =  -0.00015351 +j -8.8625E-005
------------
633           1        0.0001143 /_   90.0 =  -6.6575E-009 +j 0.0001143
633           2        0.0001143 /_  -30.0 =  9.8987E-005 +j -5.7144E-005
633           3        0.0001143 /_ -150.0 =  -9.8982E-005 +j -5.7153E-005

ELEMENT = "Line.632645"
632           3       0.00043614 /_ -152.9 =  -0.00038835 +j -0.00019849
632           2       0.00043613 /_  -27.1 =  0.00038834 +j -0.0001985
------------
645           3       0.00017119 /_   37.5 =  0.00013586 +j 0.00010416
645           2       0.00017119 /_  142.5 =  -0.00013585 +j 0.00010417

ELEMENT = "Line.645646"
645           3       0.00018113 /_ -154.2 =  -0.00016312 +j -7.8737E-005
645           2       0.00018113 /_  -25.8 =  0.00016311 +j -7.8742E-005
------------
646           3      2.5005E-005 /_   62.3 =  1.162E-005 +j 2.2141E-005
646           2      2.5008E-005 /_  117.7 =  -1.1617E-005 +j 2.2146E-005

ELEMENT = "Line.692675"
692           1         0.016563 /_   90.0 =  2.1284E-008 +j  0.016563
692           2         0.016563 /_  -30.0 =   0.014344 +j -0.0082815
692           3         0.016563 /_ -150.0 =  -0.014344 +j -0.0082815
------------
675           1         0.016361 /_   90.0 =  -1.9156E-008 +j  0.016361
675           2         0.016361 /_  -30.0 =   0.014169 +j -0.0081806
675           3         0.016361 /_ -150.0 =  -0.014169 +j -0.0081806

ELEMENT = "Line.671684"
671           1       0.00038263 /_   88.0 =  1.3373E-005 +j 0.0003824
671           3       0.00038264 /_ -148.0 =  -0.00032449 +j -0.00020277
------------
684           1        0.0002233 /_  -86.6 =  1.3362E-005 +j -0.0002229
684           3       0.00022331 /_   26.6 =  0.00019973 +j 9.987E-005

ELEMENT = "Line.684611"
684           3       0.00017292 /_ -150.0 =  -0.00014975 +j -8.6452E-005
------------
611           3      2.8854E-005 /_   30.0 =  2.4992E-005 +j 1.4421E-005

ELEMENT = "Line.684652"
684           1         0.016291 /_   90.0 =  6.4683E-009 +j  0.016291
------------
652           1         0.016089 /_   90.0 =  -4.0855E-009 +j  0.016089

ELEMENT = "Line.671692"
671           1       0.00030268 /_   89.3 =  3.8147E-006 +j 0.00030265
671           2       0.00030618 /_  -30.7 =  0.00026321 +j -0.0001564
671           3       0.00030424 /_ -149.9 =  -0.00026321 +j -0.00015259
------------
692           1       0.00030268 /_  -90.7 =  -3.8147E-006 +j -0.00030265
692           2       0.00030618 /_  149.3 =  -0.00026321 +j 0.0001564
692           3       0.00030424 /_   30.1 =  0.00026321 +j 0.00015259

= = = = = = = = = = = = = = = = = = =  = = = = = = = = = = =  = =

Power Conversion Elements

  Bus     Phase    Magnitude, A     Angle      (Real)   +j  (Imag)

ELEMENT = "Load.671"
671           1            184.6 /_  -29.7 =     160.28 +j    -91.59
671           2            184.6 /_ -149.7 =    -159.46 +j   -93.013
671           3            184.6 /_   90.3 =   -0.82195 +j     184.6
671           0      2.8392E-005 /_   99.8 =  -4.8545E-006 +j 2.7974E-005

ELEMENT = "Load.634A"
634           1           700.56 /_  -34.5 =     577.29 +j   -396.89
634           0           700.56 /_  145.5 =    -577.29 +j    396.89

ELEMENT = "Load.634B"
634           2           541.21 /_ -156.9 =    -497.71 +j    -212.6
634           0           541.21 /_   23.1 =     497.71 +j     212.6

ELEMENT = "Load.634C"
634           3           541.21 /_   83.1 =     64.737 +j    537.33
634           0           541.21 /_  -96.9 =    -64.737 +j   -537.33

ELEMENT = "Load.645"
645           2           87.847 /_ -156.3 =    -80.455 +j   -35.272
645           0           87.847 /_   23.7 =     80.455 +j    35.272

ELEMENT = "Load.646"
646           2           63.753 /_ -119.9 =    -31.734 +j   -55.294
646           3           63.753 /_   60.1 =     31.734 +j    55.294

ELEMENT = "Load.692"
692           3           54.658 /_  108.4 =    -17.241 +j    51.868
692           1           54.658 /_  -71.6 =     17.241 +j   -51.868

ELEMENT = "Load.675A"
675           1           216.85 /_  -21.4 =     201.91 +j     -79.1
675           0           216.85 /_  158.6 =    -201.91 +j      79.1

ELEMENT = "Load.675B"
675           2           37.754 /_ -161.4 =    -35.787 +j   -12.027
675           0           37.754 /_   18.6 =     35.787 +j    12.027

ELEMENT = "Load.675C"
675           3           149.55 /_   83.8 =     16.069 +j    148.69
675           0           149.55 /_  -96.2 =    -16.069 +j   -148.69

ELEMENT = "Load.611"
611           3           78.285 /_   94.8 =    -6.5491 +j     78.01
611           0           78.285 /_  -85.2 =     6.5491 +j    -78.01

ELEMENT = "Load.652"
652           1           64.307 /_  -33.9 =     53.378 +j   -35.863
652           0           64.307 /_  146.1 =    -53.378 +j    35.863

ELEMENT = "Load.670A"
670           1            8.211 /_  -30.5 =     7.0774 +j   -4.1632
670           0            8.211 /_  149.5 =    -7.0774 +j    4.1632

ELEMENT = "Load.670B"
670           2           31.706 /_ -149.9 =    -27.439 +j   -15.886
670           0           31.706 /_   30.1 =     27.439 +j    15.886

ELEMENT = "Load.670C"
670           3           56.338 /_   89.8 =    0.16226 +j    56.338
670           0           56.338 /_  -90.2 =   -0.16226 +j   -56.338

