MATDSS_ver0.96/DSS_Files/Other DSS Files/Old Files/4busDYBal_Curr_Seq.Txt

SYMMETRICAL COMPONENT CURRENTS BY CIRCUIT ELEMENT (first 3 phases)

Element          Term      I1         I2         %I2/I1    I0         %I0/I1   %Normal %Emergency

"VSOURCE.SOURCE"   1      319.31      0.17347     0.05  4.4507E-005     0.00      0.00     0.00
   -               2      319.31      0.17347     0.05  4.4507E-005     0.00      0.00     0.00
"LINE.LINE1" ...   1      319.31      0.17347     0.05  4.4507E-005     0.00      0.00     0.00
   -               2      319.31      0.17348     0.05  4.358E-009     0.00      0.00     0.00
"TRANSFORMER.T1"   1      319.31      0.17348     0.05  4.3624E-009     0.00    104.53    76.65
   -               2      957.17      0.52001     0.05      1.3916     0.15      0.00     0.00
"LINE.LINE2" ...   1      957.17      0.52001     0.05      1.3916     0.15    106.53     0.00
   -               2      957.17      0.52009     0.05      1.3917     0.15      0.00     0.00
"LINE.LINE3" ...   1  0.00077034   9.2531E-005    12.01  1.8243E-005     2.37      0.00     0.00
   -               2  8.547E-012   2.7898E-012    32.64  2.3532E-012    27.53      0.00     0.00
"LOAD.LOAD1" ...   1       957.2      0.52613     0.05      1.3996     0.15      0.00     0.00
"LOAD.LOAD2" ...   1           0            0     0.00           0     0.00      0.00     0.00
