MATDSS_ver0.96/DSS_Files/Other DSS Files/Old Files/4busDYBal_Power_seq_kVA.txt

SYMMETRICAL COMPONENT POWERS BY CIRCUIT ELEMENT (first 3 phases)                                     Excess Power

Element          Term    P1(kW)   Q1(kvar)       P2         Q2      P0      Q0       P_Norm      Q_Norm     P_Emerg    Q_Emerg

"Vsource.SOURCE"  1     -540.3       -1.0        0.0        0.0     0.0     0.0
"Vsource.SOURCE"  2        0.0        0.0        0.0        0.0     0.0     0.0
"Line.LINE1"      1      540.3        1.0       -0.0       -0.0    -0.0    -0.0        0.0        0.0        0.0        0.0
"Line.LINE1"      2     -540.3       -1.0        0.0        0.0    -0.0    -0.0
"Transformer.T1"  1      540.3        1.0       -0.0       -0.0     0.0     0.0        0.0        0.0        0.0        0.0
"Transformer.T1"  2     -540.2       -0.5        0.0        0.0     0.0     0.0
"Line.LINE2"      1      540.2        0.5       -0.0       -0.0    -0.0    -0.0        0.0        0.0        0.0        0.0
"Line.LINE2"      2     -540.0       -0.0        0.0        0.0     0.0     0.0
"Load.LOAD1"      1      540.0        0.0       -0.0       -0.0    -0.0    -0.0

Total Circuit Losses =    0.3 +j    1.0
